Circuit: * C:\Users\forrest.rodeman\TuftedPuffinCustom\Electronics\MiniFridgePoet\Schematics\Draft1.asc

Limiting fall time of source v2 to 0.1
WARNING: Node P001 is floating.

Direct Newton iteration for .op point succeeded.

Date: Tue Jan  9 16:05:05 2024
Total elapsed time: 0.054 seconds.

tnom = 27
temp = 27
method = modified trap
totiter = 2701
traniter = 2698
tranpoints = 1269
accept = 1206
rejected = 63
matrix size = 8
fillins = 2
solver = Normal
Avg thread counts: 3.7/6.8/6.8/3.7
Matrix Compiler1:      30 opcodes  0.1/[0.1]/0.1
Matrix Compiler2: 668 bytes object code size  0.1/0.1/[0.1]

