Circuit: * C:\Users\forrest.rodeman\TuftedPuffinCustom\Electronics\MiniFridgePoet\Schematics\Draft1.asc

.OP point found by inspection.

Date: Sat Dec  9 15:29:15 2023
Total elapsed time: 0.018 seconds.

tnom = 27
temp = 27
method = trap
totiter = 0
traniter = 0
tranpoints = 0
accept = 0
rejected = 0
matrix size = 3
fillins = 0
solver = Normal
Avg thread counts: 20.0/0.0/0.0/20.0
Matrix Compiler1:       4 opcodes
Matrix Compiler2:      15 opcodes
