Circuit: * C:\Users\forrest.rodeman\TuftedPuffinCustom\Electronics\MiniFridgePoet\Schematics\preamp_mystery.asc

WARNING: Node N011 is floating.

Direct Newton iteration failed to find .op point.  (Use ".option noopiter" to skip.)
Starting Gmin stepping
Gmin = 10
Gmin = 1.07374
Gmin = 0.115292
Gmin = 0.0123794
Gmin = 0.00132923
Gmin = 0.000142725
Gmin = 1.5325e-05
Gmin = 1.6455e-06
Gmin = 1.76685e-07
Gmin = 1.89714e-08
Gmin = 2.03704e-09
Gmin = 2.18725e-10
Gmin = 2.34854e-11
Gmin = 2.52173e-12
Gmin = 2.70769e-13
Gmin = 0
Gmin stepping succeeded in finding the operating point.


Date: Thu Dec 28 05:46:44 2023
Total elapsed time: 0.194 seconds.

tnom = 27
temp = 27
method = modified trap
totiter = 2519
traniter = 2091
tranpoints = 1042
accept = 1042
rejected = 0
matrix size = 50
fillins = 38
solver = Normal
Avg thread counts: 4.9/8.1/8.1/4.5
Matrix Compiler1: 4.10 KB object code size  1.6/0.9/[0.7]
Matrix Compiler2: 3.88 KB object code size  0.7/1.6/[0.6]

