Circuit: * C:\Users\forrest.rodeman\TuftedPuffinCustom\Electronics\MiniFridgePoet\Schematics\preamp_sine.asc

Direct Newton iteration for .op point succeeded.

Date: Thu Dec 14 15:10:24 2023
Total elapsed time: 0.106 seconds.

tnom = 27
temp = 27
method = modified trap
totiter = 20691
traniter = 20684
tranpoints = 4840
accept = 3722
rejected = 1118
matrix size = 26
fillins = 11
solver = Normal
Avg thread counts: 1.4/2.5/1.6/1.4
Matrix Compiler1: 1.57 KB object code size  0.4/0.2/[0.2]
Matrix Compiler2: 1.82 KB object code size  0.1/0.2/[0.1]

