Circuit: * C:\Users\forrest.rodeman\TuftedPuffinCustom\Electronics\MiniFridgePoet\tone_sl_1959.asc

Direct Newton iteration for .op point succeeded.

Date: Fri Dec  8 18:17:58 2023
Total elapsed time: 0.023 seconds.

tnom = 27
temp = 27
method = trap
totiter = 4
traniter = 0
tranpoints = 0
accept = 0
rejected = 0
matrix size = 40
fillins = 18
solver = Normal
Avg thread counts: 20.0/0.0/20.0/20.0
Matrix Compiler1:     129 opcodes
Matrix Compiler2: 2.82 KB object code size
